# SP Test

[No Title]

  0  1
F   -1.46619878   -0.43322295   0.12992635   
C   -2.80581381   -0.36661833   -0.02335571   
H   -3.24534408   0.05117354   0.85821283   
H   -3.19568155   -1.34992594   -0.18462966   
P   -3.20106084   0.68507974   -1.45517657   
H   -3.88840245   -0.03547171   -2.3666957   
C   -4.21217058   2.09684948   -0.9102332   
H   -2.63806546   3.54481999   -1.24874591   
C   -3.67368704   3.38389087   -0.91583217   
H   -5.95004352   0.87787251   -0.48279855   
C   -5.52541812   1.89217213   -0.48710647   
C   -4.44812899   4.46586247   -0.4977426   
C   -6.30055058   2.97449755   -0.06979215   
C   -5.76210905   4.26119546   -0.07491362   
H   -4.0235549   5.4802682   -0.50153364   
H   -7.33609175   2.81287035   0.26338251   
H   -6.372556   5.11445302   0.25463515   
